#======================================================================

# CRYSTAL DATA

#----------------------------------------------------------------------

data_VESTA_phase_1


_pd_phase_name                         'Li                                    '
_cell_length_a                         7.640037
_cell_length_b                         7.640037
_cell_length_c                         7.640037
_cell_angle_alpha                      23.220008
_cell_angle_beta                       23.220008
_cell_angle_gamma                      23.220008
_symmetry_space_group_name_H-M         'P 1'
_symmetry_Int_Tables_number            1

loop_
_symmetry_equiv_pos_as_xyz
   'x, y, z'

loop_
   _atom_site_label
   _atom_site_occupancy
   _atom_site_fract_x
   _atom_site_fract_y
   _atom_site_fract_z
   _atom_site_thermal_displace_type
   _atom_site_B_iso_or_equiv
   _atom_site_type_symbol
   Li1      1.0    0            0            0           Biso  1.000  Li
   Li2      1.0    0.22222222      0.22222222      0.22222222     Biso  1.000  Li
   Li3      1.0    0.77777778      0.77777778      0.77777778     Biso  1.000  Li
